/*--------------------------------*- C++ -*----------------------------------*\
  =========                 |
  \\      /  F ield         | OpenFOAM: The Open Source CFD Toolbox
   \\    /   O peration     | Website:  https://openfoam.org
    \\  /    A nd           | Version:  13
     \\/     M anipulation  |
\*---------------------------------------------------------------------------*/
FoamFile
{
    format      ascii;
    class       dictionary;
    location    "system";
    object      controlDict;
}
// * * * * * * * * * * * * * * * * * * * * * * * * * * * * * * * * * * * * * //

solver          incompressibleVoF;

libs            ("libfieldFunctionObjects.so");

startFrom       startTime;

startTime       0;

stopAt          endTime;

endTime 0.002;

deltaT          1e-05;

writeControl    adjustableRunTime;

writeInterval   0.01;

purgeWrite      0;

writeFormat     ascii;

writePrecision  8;

writeCompression off;

timeFormat      general;

timePrecision   6;

runTimeModifiable yes;

adjustTimeStep  on;

maxCo           0.4;
maxAlphaCo      0.25;

maxDeltaT       1e-04;

functions
{
    patchAveragePressure
    {
        type            surfaceFieldValue;
        libs            ("libfieldFunctionObjects.so");
        patch           pipeWall;
        operation       average;
        fields          (p_rgh);
        writeControl    timeStep;
        writeInterval   1;
        writeFields     false;
    }
}
