/*--------------------------------*- C++ -*----------------------------------*\
  =========                 |
  \\      /  F ield         | OpenFOAM: The Open Source CFD Toolbox
   \\    /   O peration     | Website:  https://openfoam.org
    \\  /    A nd           | Version:  13
     \\/     M anipulation  |
\*---------------------------------------------------------------------------*/
FoamFile
{
    format      ascii;
    class       polyBoundaryMesh;
    location    "constant/polyMesh";
    object      boundary;
}
// * * * * * * * * * * * * * * * * * * * * * * * * * * * * * * * * * * * * * //

4
(
    inletEnd
    {
        type            patch;
        nFaces          144;
        startFace       48816;
    }
    outletEnd
    {
        type            patch;
        nFaces          144;
        startFace       48960;
    }
    innerWall
    {
        type            patch;
        nFaces          2880;
        startFace       49104;
    }
    outerWall
    {
        type            patch;
        nFaces          2880;
        startFace       51984;
    }
)

// ************************************************************************* //
