/*--------------------------------*- C++ -*----------------------------------*\
  =========                 |
  \\      /  F ield         | OpenFOAM: The Open Source CFD Toolbox
   \\    /   O peration     | Website:  https://openfoam.org
    \\  /    A nd           | Version:  13
     \\/     M anipulation  |
\*---------------------------------------------------------------------------*/
FoamFile
{
    format      ascii;
    class       polyBoundaryMesh;
    location    "constant/polyMesh";
    object      boundary;
}
// * * * * * * * * * * * * * * * * * * * * * * * * * * * * * * * * * * * * * //

3
(
    inlet
    {
        type            patch;
        nFaces          320;
        startFace       150720;
    }
    outlet
    {
        type            patch;
        nFaces          320;
        startFace       151040;
    }
    pipeWall
    {
        type            wall;
        inGroups        List<word> 1(wall);
        nFaces          5120;
        startFace       151360;
    }
)

// ************************************************************************* //
